
**** 05/01/25 02:29:07 ********* PSpice 9.2 (Mar 2000) ******** ID# 0 ********

 ** Profile: "SCHEMATIC1-SIMULATE"  [ c:\users\mohammad al-ahmad\desktop\workshop\orcad\louay\closed loop\closed loop-schematic1-simu


 ****     CIRCUIT DESCRIPTION


******************************************************************************




** Creating circuit file "closed loop-schematic1-simulate.sim.cir" 
** WARNING: THIS AUTOMATICALLY GENERATED FILE MAY BE OVERWRITTEN BY SUBSEQUENT SIMULATIONS

*Libraries: 
* Local Libraries :
* From [PSPICE NETLIST] section of C:\Program Files\Orcad\PSpice\PSpice.ini file:
.lib "nom.lib" 

*Analysis directives: 
.TRAN  0 20ms 0 SKIPBP 
.PROBE V(*) I(*) W(*) D(*) NOISE(*) 
.INC ".\closed loop-SCHEMATIC1.net" 



**** INCLUDING "closed loop-SCHEMATIC1.net" ****
* source CLOSED LOOP
X_OPwov2A         0 N00446 V12+ V12- N00519 TL074/301/TI
R_Rvd13         0 N00593  10k  
X_Q3         0 N00099 VM1 TIP117
C_CB2         N54020 N28415  10n  
R_Rcom1         N00493 VSS  1k  
R_Rvd14         0 N00566  10k  
X_U1A1ECmC         N00566 N32293 V12+ V12- N32293 TL074/301/TI
R_R1         N00357 N00429  33k  
R_Rpi2         VIREFA N92276  5.6k  
C_Cfilter         N00519 VT  1n  
R_Rc1         N00099 VC  1k  
X_D13         0 VM1 D120NQ045 
R_Rc2         N00653 VC  1k  
Q_QB2         N00653 N28415 0 QBC337-16/PLP 
V_V1         VC 0 10
C_Cpi1         N92398 N92324  100n  
X_D12         N00685 VC D120NQ045 
R_Rfilter         0 VT  100k  
X_Q1         VC N00099 VM1 TIP112
X_Not3A         N00493 N54020 $G_DPWR $G_DGND 7404 PARAMS:
+ IO_LEVEL=0 MNTYMXDLY=0
C_C         N00446 N00519  10n  
R_RB1         N00493 N00422  10k  
X_U1A1A         N00806 N00839 V12+ V12- VMOP1 TL074/301/TI
X_U1A1D         N00593 N32389 V12+ V12- N32389 TL074/301/TI
V_V4         V12+ 0 12
R_Rop14         N00839 VMOP1  150k  
R_Rop12         N00806 0  150k  
R_Rvd11         N00593 VM2  27k  
C_CB1         N00493 N00422  10n  
L_LCoilA         VM2 N36449  45mH  
V_V5         V12- 0 -12
R_Rpi4         N922301 N92276  6.6k  
X_Q4         0 N00653 N00685 TIP117
X_OPwov1A         N00357 0 V12+ V12- N00429 TL074/301/TI
X_Upi2A         N92200 N92276 V12+ V12- N92324 TL074/301/TI
R_Rop11         N32293 N00806  1k  
R_Rvd12         N00566 VM1  27k  
V_V2         VSS 0 5
X_Q2         VC N00653 N00685 TIP112
R_R         N00429 N00446  5.6k  
R_Rop13         N32389 N00839  1k  
R_RCoilA         N36449 N00685  10  
C_Cpi2         0 N922301  100n  
X_D11         VM1 VC D120NQ045 
R_R2         N00357 N00519  10k  
V_V7         VIREFA 0  
+PULSE 2.1 -2.1 0 1us 1us 10ms 20ms
R_RSenseA         VM1 VM2  0.22  
X_D14         0 N00685 D120NQ045 
Q_QB1         N00099 N00422 0 QBC337/PLP 
X_U5         N92324 VT V12+ V12- N00493 0 LM311
R_Rpi1         VMOP1 N92200  5.6k  
R_RB2         N54020 N28415  10k  
R_Rpi3         N92200 N92398  6.6k  

**** RESUMING "closed loop-schematic1-simulate.sim.cir" ****
.END


**** Generated AtoD and DtoA Interfaces ****

*
* Analog/Digital interface for node N54020
*
* Moving X_Not3A.U1:OUT1 from analog node N54020 to new digital node N54020$DtoA
X$N54020_DtoA1
+ N54020$DtoA
+ N54020
+ $G_DPWR
+ $G_DGND
+ DtoA_STD
+       PARAMS: DRVH=  96.4   DRVL= 104    CAPACITANCE=   0     
*
* Analog/Digital interface for node N00493
*
* Moving X_Not3A.U1:IN1 from analog node N00493 to new digital node N00493$AtoD
X$N00493_AtoD1
+ N00493
+ N00493$AtoD
+ $G_DPWR
+ $G_DGND
+ AtoD_STD
+       PARAMS: CAPACITANCE=   0     
*
* Analog/Digital interface power supply subcircuits
*

X$DIGIFPWR 0 DIGIFPWR

**** 05/01/25 02:29:07 ********* PSpice 9.2 (Mar 2000) ******** ID# 0 ********

 ** Profile: "SCHEMATIC1-SIMULATE"  [ c:\users\mohammad al-ahmad\desktop\workshop\orcad\louay\closed loop\closed loop-schematic1-simu


 ****     Diode MODEL PARAMETERS


******************************************************************************




               X_OPwov2A.DX    X_Q3.Dmodel     X_U1A1ECmC.DX   X_D13.DFWD      
          IS  800.000000E-18    3.472100E-12  800.000000E-18   11.137170E-06 
           N                    3.4748                           .520057     
         ISR                  100.000000E-12                  225.763900E-12 
         IKF                                                  184.112000E-06 
          BV                  120                              44.905        
         IBV                    1.000000E-06                    2.586700E-03 
          RS                    1.000000E-03                    1.020740E-03 
          TT                    5.000000E-09                                 
         CJO                    1.000000E-12                   11.509000E-09 
          VJ                     .75                             .75         
           M                     .3333                           .49488      
          EG                                                     .69         
         XTI                                                    2            


               X_D13.DLEAK     X_D12.DFWD      X_D12.DLEAK     X_Q1.Dmodel     
          IS  186.070200E-12   11.137170E-06  186.070200E-12    3.472100E-12 
           N   99.2231           .520057       99.2231          3.4748       
         ISR                  225.763900E-12                  100.000000E-12 
         IKF                  184.112000E-06                                 
          BV  100.000000E+03   44.905         100.000000E+03  120            
         IBV    1.000000E-03    2.586700E-03    1.000000E-03    1.000000E-06 
          RS     .1             1.020740E-03     .1             1.000000E-03 
          TT                                                    5.000000E-09 
         CJO                   11.509000E-09                    1.000000E-12 
          VJ                     .75                             .75         
           M                     .49488                          .3333       
          EG     .69             .69             .69                         
         XTI    2               2               2                            


               X_U1A1A.DX      X_U1A1D.DX      X_Q4.Dmodel     X_OPwov1A.DX    
          IS  800.000000E-18  800.000000E-18    3.472100E-12  800.000000E-18 
           N                                    3.4748                       
         ISR                                  100.000000E-12                 
          BV                                  120                            
         IBV                                    1.000000E-06                 
          RS                                    1.000000E-03                 
          TT                                    5.000000E-09                 
         CJO                                    1.000000E-12                 
          VJ                                     .75                         
           M                                     .3333                       


               X_Upi2A.DX      X_Q2.Dmodel     X_D11.DFWD      X_D11.DLEAK     
          IS  800.000000E-18    3.472100E-12   11.137170E-06  186.070200E-12 
           N                    3.4748           .520057       99.2231       
         ISR                  100.000000E-12  225.763900E-12                 
         IKF                                  184.112000E-06                 
          BV                  120              44.905         100.000000E+03 
         IBV                    1.000000E-06    2.586700E-03    1.000000E-03 
          RS                    1.000000E-03    1.020740E-03     .1          
          TT                    5.000000E-09                                 
         CJO                    1.000000E-12   11.509000E-09                 
          VJ                     .75             .75                         
           M                     .3333           .49488                      
          EG                                     .69             .69         
         XTI                                    2               2            


               X_D14.DFWD      X_D14.DLEAK     X_U5.dx         D74CLMP         
          IS   11.137170E-06  186.070200E-12  800.000000E-18    1.000000E-15 
           N     .520057       99.2231                                       
         ISR  225.763900E-12                                                 
         IKF  184.112000E-06                                                 
          BV   44.905         100.000000E+03                                 
         IBV    2.586700E-03    1.000000E-03                                 
          RS    1.020740E-03     .1                             2            
         CJO   11.509000E-09                                    2.000000E-12 
          VJ     .75                                                         
           M     .49488                                                      
          EG     .69             .69                                         
         XTI    2               2                                            


               D74             
          IS  100.000000E-18 
          RS   25            
         CJO    2.000000E-12 


**** 05/01/25 02:29:07 ********* PSpice 9.2 (Mar 2000) ******** ID# 0 ********

 ** Profile: "SCHEMATIC1-SIMULATE"  [ c:\users\mohammad al-ahmad\desktop\workshop\orcad\louay\closed loop\closed loop-schematic1-simu


 ****     BJT MODEL PARAMETERS


******************************************************************************




               QBC337-16/PLP   QBC337/PLP      X_Q3.Q1model    X_Q3.Q2model    
               NPN             NPN             PNP             PNP             
          IS   48.870000E-15   41.300000E-15   42.450000E-15   42.450000E-15 
          BF  207.2           292.4           707.4           707.4          
          NF    1.002            .9822          1               1            
         VAF  184.8           145.7           100             100            
         IKF     .902            .9              .01001          .01001      
         ISE    2.552000E-15    3.534000E-15   55.780000E-15   55.780000E-15 
          NE    1.65            1.35            1.998           1.998        
          BR   21.85           23.68             .1001           .1001       
          NR    1.002            .982           1               1            
         VAR   20              20             100             100            
         IKR     .1              .1            10.61           10.61         
         ISC   70.060000E-15  195.700000E-15  907.300000E-15  907.300000E-15 
          NC    1.25            1.3             2.997           2.997        
          NK                                     .545            .545        
          RB   50              60               7.69995         7.69995      
         RBM    2               8                                            
         IRB  200.000000E-06  200.000000E-06                                 
          RE     .119            .1129                                       
          RC     .25             .25            1.003210E-03    1.003210E-03 
         CJE   42.170000E-12   37.990000E-12   46.600000E-12   46.600000E-12 
         VJE     .6596           .6752           .35             .35         
         MJE     .3434           .3488           .2506           .2506       
         CJC   17.340000E-12   13.550000E-12  106.000000E-12                 
         VJC     .1419           .3523          1.33            1.33         
         MJC     .3484           .3831           .3062           .3062       
        XCJC     .455            .455            .9              .9          
         MJS     .333            .333                                        
          FC     .652            .643                                        
          TF  600.000000E-12  540.000000E-12    8.000000E-09    8.000000E-09 
         XTF    2.1             4               1               1            
         VTF    2.4             4.448          10              10            
         ITF     .79             .665            .01             .01         
         PTF   86              90                                            
          TR   35.000000E-09   30.000000E-09   40.000000E-06   40.000000E-06 
          CN    2.42            2.42            2.2             2.2          
           D     .87             .87             .52             .52         


               X_Q1.Q1model    X_Q1.Q2model    X_Q4.Q1model    X_Q4.Q2model    
               NPN             NPN             PNP             PNP             
          IS    1.961000E-12    1.961000E-12   42.450000E-15   42.450000E-15 
          BF    2.997000E+03    2.997000E+03  707.4           707.4          
          NF    1               1               1               1            
         VAF  100             100             100             100            
         IKF     .01001          .01001          .01001          .01001      
         ISE    4.706000E-12    4.706000E-12   55.780000E-15   55.780000E-15 
          NE    1.428           1.428           1.998           1.998        
          BR     .1954           .1954           .1001           .1001       
          NR    1               1               1               1            
         VAR  100             100             100             100            
         IKR    7.974           7.974          10.61           10.61         
         ISC    2.203000E-12    2.203000E-12  907.300000E-15  907.300000E-15 
          NC    2.997           2.997           2.997           2.997        
          NK     .4507           .4507           .545            .545        
          RB     .100825         .100825        7.69995         7.69995      
          RC     .167214         .167214        1.003210E-03    1.003210E-03 
         CJE   38.290000E-12   38.290000E-12   46.600000E-12   46.600000E-12 
         VJE     .35             .35             .35             .35         
         MJE     .321            .321            .2506           .2506       
         CJC   41.230000E-12                  106.000000E-12                 
         VJC    1.162           1.162           1.33            1.33         
         MJC     .1636           .1636           .3062           .3062       
        XCJC     .9              .9              .9              .9          
          TF   12.000000E-09   12.000000E-09    8.000000E-09    8.000000E-09 
         XTF    1               1               1               1            
         VTF   10              10              10              10            
         ITF     .01             .01             .01             .01         
          TR   10.000000E-06   10.000000E-06   40.000000E-06   40.000000E-06 
          CN    2.42            2.42            2.2             2.2          
           D     .87             .87             .52             .52         


               X_Q2.Q1model    X_Q2.Q2model    X_U5.qin        X_U5.qmi        
               NPN             NPN             PNP             NPN             
          IS    1.961000E-12    1.961000E-12  800.000000E-18  800.000000E-18 
          BF    2.997000E+03    2.997000E+03  500               1.002000E+03 
          NF    1               1               1               1            
         VAF  100             100                                            
         IKF     .01001          .01001                                      
         ISE    4.706000E-12    4.706000E-12                                 
          NE    1.428           1.428                                        
          BR     .1954           .1954          1               1            
          NR    1               1               1               1            
         VAR  100             100                                            
         IKR    7.974           7.974                                        
         ISC    2.203000E-12    2.203000E-12                                 
          NC    2.997           2.997                                        
          NK     .4507           .4507                                       
          RB     .100825         .100825                                     
          RC     .167214         .167214                                     
         CJE   38.290000E-12   38.290000E-12                                 
         VJE     .35             .35                                         
         MJE     .321            .321                                        
         CJC   41.230000E-12                                                 
         VJC    1.162           1.162                                        
         MJC     .1636           .1636                                       
        XCJC     .9              .9                                          
          TF   12.000000E-09   12.000000E-09                                 
         XTF    1               1                                            
         VTF   10              10                                            
         ITF     .01             .01                                         
          TR   10.000000E-06   10.000000E-06                                 
          CN    2.42            2.42            2.2             2.42         
           D     .87             .87             .52             .87         


               X_U5.qmo        X_U5.qoc        Q74             
               NPN             NPN             NPN             
          IS  800.000000E-18  800.000000E-18  100.000000E-18 
          BF    1.000000E+03  206.900000E+03   49            
          NF    1               1               1            
         ISE                                  100.000000E-18 
          BR    1               1                .03         
          NR    1               1               1            
         ISC                                  400.000000E-18 
          RB                                   50            
          RC                                   20            
         CJE                                    1.000000E-12 
         VJE                                     .9          
         MJE                                     .5          
         CJC    1.000000E-15    1.000000E-15  500.000000E-15 
         VJC                                     .8          
         CJS                                    3.000000E-12 
         VJS                                     .7          
         MJS                                     .33         
          TF                    7.855000E-12  200.000000E-12 
          TR  124.200000E-09   83.830000E-09   10.000000E-09 
          CN    2.42            2.42            2.42         
           D     .87             .87             .87         


**** 05/01/25 02:29:07 ********* PSpice 9.2 (Mar 2000) ******** ID# 0 ********

 ** Profile: "SCHEMATIC1-SIMULATE"  [ c:\users\mohammad al-ahmad\desktop\workshop\orcad\louay\closed loop\closed loop-schematic1-simu


 ****     Junction FET MODEL PARAMETERS


******************************************************************************




               X_OPwov2A.JX    X_U1A1ECmC.JX   X_U1A1A.JX      X_U1A1D.JX      
               PJF             PJF             PJF             PJF             
         VTO   -1              -1              -1              -1            
        BETA  270.100000E-06  270.100000E-06  270.100000E-06  270.100000E-06 
          IS   15.000000E-12   15.000000E-12   15.000000E-12   15.000000E-12 


               X_OPwov1A.JX    X_Upi2A.JX      
               PJF             PJF             
         VTO   -1              -1            
        BETA  270.100000E-06  270.100000E-06 
          IS   15.000000E-12   15.000000E-12 


**** 05/01/25 02:29:07 ********* PSpice 9.2 (Mar 2000) ******** ID# 0 ********

 ** Profile: "SCHEMATIC1-SIMULATE"  [ c:\users\mohammad al-ahmad\desktop\workshop\orcad\louay\closed loop\closed loop-schematic1-simu


 ****     Digital Input MODEL PARAMETERS


******************************************************************************




               DIN74           
        FILE DSO_DTOA        
      FORMAT    6            
    TIMESTEP  100.000000E-12 
      S0NAME 0               
       S0TSW    3.500000E-09 
       S0RLO    7.13         
       S0RHI  389            
      S1NAME 1               
       S1TSW    5.500000E-09 
       S1RLO  467            
       S1RHI  200            
      S2NAME X               
       S2TSW    3.500000E-09 
       S2RLO   42.9          
       S2RHI  116            
      S3NAME R               
       S3TSW    3.500000E-09 
       S3RLO   42.9          
       S3RHI  116            
      S4NAME F               
       S4TSW    3.500000E-09 
       S4RLO   42.9          
       S4RHI  116            
      S5NAME Z               
       S5TSW    3.500000E-09 
       S5RLO  200.000000E+03 
       S5RHI  200.000000E+03 


**** 05/01/25 02:29:07 ********* PSpice 9.2 (Mar 2000) ******** ID# 0 ********

 ** Profile: "SCHEMATIC1-SIMULATE"  [ c:\users\mohammad al-ahmad\desktop\workshop\orcad\louay\closed loop\closed loop-schematic1-simu


 ****     Digital Output MODEL PARAMETERS


******************************************************************************




               DO74            
        FILE DSO_ATOD        
      FORMAT    6            
     CHGONLY    1            
    TIMESTEP  100.000000E-12 
      S0NAME X               
       S0VHI    2            
       S0VLO     .8          
      S1NAME 0               
       S1VHI     .8          
       S1VLO   -1.5          
      S2NAME R               
       S2VHI    1.4          
       S2VLO     .8          
      S3NAME R               
       S3VHI    2            
       S3VLO    1.3          
      S4NAME X               
       S4VHI    2            
       S4VLO     .8          
      S5NAME 1               
       S5VHI    7            
       S5VLO    2            
      S6NAME F               
       S6VHI    2            
       S6VLO    1.3          
      S7NAME F               
       S7VHI    1.4          
       S7VLO     .8          


**** 05/01/25 02:29:07 ********* PSpice 9.2 (Mar 2000) ******** ID# 0 ********

 ** Profile: "SCHEMATIC1-SIMULATE"  [ c:\users\mohammad al-ahmad\desktop\workshop\orcad\louay\closed loop\closed loop-schematic1-simu


 ****     Digital Gate MODEL PARAMETERS


******************************************************************************




               D_04            
      TPLHMN    4.800000E-09 
      TPLHTY   12.000000E-09 
      TPLHMX   22.000000E-09 
      TPHLMN    3.200000E-09 
      TPHLTY    8.000000E-09 
      TPHLMX   15.000000E-09 


**** 05/01/25 02:29:07 ********* PSpice 9.2 (Mar 2000) ******** ID# 0 ********

 ** Profile: "SCHEMATIC1-SIMULATE"  [ c:\users\mohammad al-ahmad\desktop\workshop\orcad\louay\closed loop\closed loop-schematic1-simu


 ****     Digital IO  MODEL PARAMETERS


******************************************************************************




               IO_STD          
        DRVL  104            
        DRVH   96.4          
       AtoD1 AtoD_STD        
       AtoD2 AtoD_STD_NX     
       AtoD3 AtoD_STD        
       AtoD4 AtoD_STD_NX     
       DtoA1 DtoA_STD        
       DtoA2 DtoA_STD        
       DtoA3 DtoA_STD        
       DtoA4 DtoA_STD        
      TSWHL1    1.511000E-09 
      TSWHL2    1.487000E-09 
      TSWHL3    1.511000E-09 
      TSWHL4    1.487000E-09 
      TSWLH1    3.517000E-09 
      TSWLH2    3.564000E-09 
      TSWLH3    3.517000E-09 
      TSWLH4    3.564000E-09 
       TPWRT  100.000000E+03 



          JOB CONCLUDED

          TOTAL JOB TIME            9.44
