
**** 05/01/25 02:12:14 ********* PSpice 9.2 (Mar 2000) ******** ID# 0 ********

 ** Profile: "SCHEMATIC1-Test"  [ c:\users\mohammad al-ahmad\desktop\workshop\orcad\louay\7812-schematic1-test.sim ] 


 ****     CIRCUIT DESCRIPTION


******************************************************************************




** Creating circuit file "7812-schematic1-test.sim.cir" 
** WARNING: THIS AUTOMATICALLY GENERATED FILE MAY BE OVERWRITTEN BY SUBSEQUENT SIMULATIONS

*Libraries: 
* Local Libraries :
* From [PSPICE NETLIST] section of C:\Program Files\Orcad\PSpice\PSpice.ini file:
.lib "nom.lib" 

*Analysis directives: 
.TRAN  0 100ms 0 SKIPBP 
.PROBE V(*) I(*) W(*) D(*) NOISE(*) 
.INC ".\7812-SCHEMATIC1.net" 



**** INCLUDING 7812-SCHEMATIC1.net ****
* source 7812
X_U1         N00091 N00230 0 LM7812C
V_V1         N00091 0 15.2
R_R1         0 N00230  1k  

**** RESUMING 7812-schematic1-test.sim.cir ****
.END

**** 05/01/25 02:12:14 ********* PSpice 9.2 (Mar 2000) ******** ID# 0 ********

 ** Profile: "SCHEMATIC1-Test"  [ c:\users\mohammad al-ahmad\desktop\workshop\orcad\louay\7812-schematic1-test.sim ] 


 ****     Diode MODEL PARAMETERS


******************************************************************************




               X_U1.x1.Dlim    X_U1.x1.Dz      
          IS   10.000000E-15   50.000000E-15 
          BV                    7.11         
         IBV                   50.000000E-09 
          RS                    3            
          VJ     .7                          


**** 05/01/25 02:12:14 ********* PSpice 9.2 (Mar 2000) ******** ID# 0 ********

 ** Profile: "SCHEMATIC1-Test"  [ c:\users\mohammad al-ahmad\desktop\workshop\orcad\louay\7812-schematic1-test.sim ] 


 ****     BJT MODEL PARAMETERS


******************************************************************************




               X_U1.x1.Npn1    
               NPN             
          IS   10.000000E-15 
          BF   50            
          NF    1            
          BR    1            
          NR    1            
          CN    2.42         
           D     .87         


**** 05/01/25 02:12:14 ********* PSpice 9.2 (Mar 2000) ******** ID# 0 ********

 ** Profile: "SCHEMATIC1-Test"  [ c:\users\mohammad al-ahmad\desktop\workshop\orcad\louay\7812-schematic1-test.sim ] 


 ****     Voltage Controlled Switch MODEL PARAMETERS


******************************************************************************




               X_U1.x1.Sbg1    
         RON    1            
        ROFF    1.000000E+06 
         VON    3.7          
        VOFF    3            



          JOB CONCLUDED

          TOTAL JOB TIME             .03
